Version 4
SHEET 1 880 680
WIRE 432 -64 336 -64
WIRE 608 -64 512 -64
WIRE 160 16 64 16
WIRE 336 16 336 -64
WIRE 336 16 240 16
WIRE 64 32 64 16
WIRE 480 32 384 32
WIRE 672 32 560 32
WIRE 752 32 672 32
WIRE 384 64 384 32
WIRE 336 80 336 16
WIRE 352 80 336 80
WIRE 608 96 608 -64
WIRE 608 96 416 96
WIRE -16 112 -160 112
WIRE 144 112 48 112
WIRE 352 112 144 112
WIRE 752 112 752 32
WIRE -160 160 -160 112
WIRE 144 176 144 112
WIRE 384 176 384 128
WIRE 480 176 384 176
WIRE 672 176 672 32
WIRE 672 176 560 176
WIRE -160 320 -160 240
WIRE 144 320 144 256
WIRE 144 320 -160 320
WIRE -160 352 -160 320
FLAG 64 32 0
FLAG -160 352 0
FLAG 752 112 0
FLAG -160 112 Vin
FLAG 608 -64 Vout
SYMBOL cap 48 96 R90
WINDOW 0 0 32 VBottom 2
WINDOW 3 32 32 VTop 2
SYMATTR InstName C1
SYMATTR Value 1µ
SYMBOL res 160 272 R180
WINDOW 0 36 76 Left 2
WINDOW 3 36 40 Left 2
SYMATTR InstName R1
SYMATTR Value 1591.5494
SYMBOL voltage -160 144 R0
WINDOW 123 24 97 Left 2
WINDOW 39 0 0 Left 0
SYMATTR Value2 AC 1
SYMATTR InstName V1
SYMATTR Value ""
SYMBOL OpAmps\\OP747 384 32 R0
SYMATTR InstName U1
SYMBOL res 256 0 R90
WINDOW 0 0 56 VBottom 2
WINDOW 3 32 56 VTop 2
SYMATTR InstName R2
SYMATTR Value 2k
SYMBOL res 528 -80 R90
WINDOW 0 0 56 VBottom 2
WINDOW 3 32 56 VTop 2
SYMATTR InstName R3
SYMATTR Value 2k
SYMBOL voltage 464 32 R270
WINDOW 0 32 56 VTop 2
WINDOW 3 -32 56 VBottom 2
WINDOW 123 0 0 Left 0
WINDOW 39 0 0 Left 0
SYMATTR InstName +Vcc
SYMATTR Value 15
SYMBOL voltage 576 176 R90
WINDOW 0 -32 56 VBottom 2
WINDOW 3 32 56 VTop 2
WINDOW 123 0 0 Left 0
WINDOW 39 0 0 Left 0
SYMATTR InstName -Vcc
SYMATTR Value 15
TEXT -192 392 Left 2 !.ac dec 20 1 500k
