Version 4
SHEET 1 880 680
WIRE 112 32 32 32
WIRE 272 32 192 32
WIRE 32 64 32 32
WIRE 272 80 272 32
WIRE 32 192 32 144
WIRE 272 192 272 144
FLAG 32 192 0
FLAG 272 192 0
FLAG 272 32 out
FLAG 32 32 in
SYMBOL cap 256 80 R0
SYMATTR InstName C
SYMATTR Value 3.1831µ
SYMBOL res 208 16 R90
WINDOW 0 0 56 VBottom 2
WINDOW 3 32 56 VTop 2
SYMATTR InstName R
SYMATTR Value 1k
SYMBOL voltage 32 48 R0
SYMATTR InstName V1
SYMATTR Value AC 1
TEXT 0 216 Left 2 !.ac dec 20 1 2k
