Version 4
SHEET 1 880 680
WIRE 160 80 48 80
WIRE 336 80 240 80
WIRE 48 128 48 80
WIRE 336 128 336 80
WIRE 48 272 48 208
WIRE 336 272 336 208
FLAG 48 272 0
FLAG 336 80 out
FLAG 48 80 in
FLAG 336 272 0
SYMBOL voltage 48 112 R0
WINDOW 123 24 124 Left 2
WINDOW 39 0 0 Left 0
SYMATTR InstName V1
SYMATTR Value ""
SYMATTR Value2 AC 1
SYMBOL res 320 112 R0
SYMATTR InstName R1
SYMATTR Value 1
SYMBOL ind 144 96 R270
WINDOW 0 32 56 VTop 2
WINDOW 3 5 56 VBottom 2
SYMATTR InstName L1
SYMATTR Value 3.1831m
TEXT 14 328 Left 2 !.ac dec 20 1 2k
