Version 4
SHEET 1 1392 680
WIRE 1008 -512 640 -512
WIRE 1040 -512 1008 -512
WIRE 1008 -496 656 -496
WIRE 1040 -496 1008 -496
WIRE 1168 -496 1104 -496
WIRE 1008 -480 688 -480
WIRE 1040 -480 1008 -480
WIRE 688 -400 688 -480
WIRE 1008 -400 688 -400
WIRE 1040 -400 1008 -400
WIRE 656 -384 656 -496
WIRE 1008 -384 656 -384
WIRE 1040 -384 1008 -384
WIRE 1136 -384 1104 -384
WIRE 464 -352 -384 -352
WIRE 416 -320 -80 -320
WIRE 368 -288 208 -288
WIRE 656 -288 656 -384
WIRE 1008 -288 656 -288
WIRE 1040 -288 1008 -288
WIRE 1040 -272 1008 -272
WIRE 1216 -272 1104 -272
WIRE -528 -256 -640 -256
WIRE -368 -256 -528 -256
WIRE -192 -256 -336 -256
WIRE -64 -256 -192 -256
WIRE 64 -256 -48 -256
WIRE 224 -256 64 -256
WIRE 464 -256 464 -352
WIRE 480 -256 464 -256
WIRE 496 -256 480 -256
WIRE 560 -256 544 -256
WIRE 576 -256 560 -256
WIRE 688 -256 688 -400
WIRE 688 -256 576 -256
WIRE 1216 -256 1216 -272
WIRE 1264 -256 1216 -256
WIRE 1264 -240 1200 -240
WIRE 1344 -240 1328 -240
WIRE 656 -192 656 -288
WIRE 1008 -192 656 -192
WIRE 1040 -192 1008 -192
WIRE 416 -176 416 -320
WIRE 480 -176 416 -176
WIRE 496 -176 480 -176
WIRE 576 -176 560 -176
WIRE 656 -176 656 -192
WIRE 656 -176 576 -176
WIRE 688 -176 688 -256
WIRE 1008 -176 688 -176
WIRE 1040 -176 1008 -176
WIRE 1200 -176 1200 -240
WIRE 1200 -176 1104 -176
WIRE -400 -144 -416 -144
WIRE -384 -144 -384 -352
WIRE -384 -144 -400 -144
WIRE -96 -144 -112 -144
WIRE -80 -144 -80 -320
WIRE -80 -144 -96 -144
WIRE 192 -144 176 -144
WIRE 208 -144 208 -288
WIRE 208 -144 192 -144
WIRE -640 -112 -640 -256
WIRE -336 -112 -336 -256
WIRE -48 -112 -48 -256
WIRE 368 -96 368 -288
WIRE 480 -96 368 -96
WIRE 496 -96 480 -96
WIRE 576 -96 560 -96
WIRE 640 -96 640 -512
WIRE 640 -96 576 -96
WIRE -368 -80 -368 -256
WIRE -368 -80 -416 -80
WIRE -64 -80 -64 -256
WIRE -64 -80 -112 -80
WIRE 224 -80 224 -256
WIRE 224 -80 176 -80
WIRE 928 -80 912 -80
WIRE 688 -64 688 -176
WIRE 816 -64 688 -64
WIRE 848 -64 816 -64
WIRE -368 -32 -368 -80
WIRE -224 -32 -368 -32
WIRE -64 -32 -64 -80
WIRE 64 -32 -64 -32
WIRE 688 -32 688 -64
WIRE 848 -32 688 -32
WIRE 1136 -32 848 -32
WIRE 1168 -32 1136 -32
WIRE 1168 -16 1168 -32
WIRE 1248 -16 1168 -16
WIRE -528 0 -528 -32
WIRE 1248 0 1200 0
WIRE 1344 0 1312 0
WIRE -528 48 -528 0
WIRE 656 48 656 -176
WIRE 1008 48 656 48
WIRE 1040 48 1008 48
WIRE 640 64 640 -96
WIRE 1008 64 640 64
WIRE 1040 64 1008 64
WIRE 1200 64 1200 0
WIRE 1200 64 1104 64
WIRE -304 112 -352 112
WIRE -240 112 -304 112
WIRE -96 128 -176 128
WIRE -272 160 -304 160
WIRE -240 160 -272 160
WIRE 656 176 656 48
WIRE 1216 176 656 176
WIRE 1248 176 1216 176
WIRE 688 192 688 -32
WIRE 1216 192 688 192
WIRE 1248 192 1216 192
WIRE 1344 192 1312 192
WIRE 640 288 640 64
WIRE 1056 288 640 288
WIRE 1088 288 1056 288
WIRE 656 304 656 176
WIRE 1072 304 656 304
WIRE 1088 304 1072 304
WIRE 1184 304 1152 304
WIRE 688 320 688 192
WIRE 1056 320 688 320
WIRE 1088 320 1056 320
WIRE 1056 432 992 432
WIRE 1328 432 1136 432
FLAG 576 -96 na
FLAG 576 -176 nb
FLAG 576 -256 nc
FLAG 480 -96 a
FLAG 480 -176 b
FLAG 480 -256 c
FLAG 1008 -512 na
FLAG 1008 -496 nb
FLAG 1008 -400 nc
FLAG 1008 -384 nb
FLAG 1008 -288 na
FLAG 1008 -272 nc
FLAG 1008 -192 nb
FLAG 1008 -480 nc
FLAG 1008 -176 nc
FLAG 1008 48 nb
FLAG 1008 64 na
FLAG 1168 -496 O1
FLAG 1136 -384 O2
FLAG 1344 -240 O3
FLAG 1344 0 O5
FLAG 1136 -32 nc
FLAG 1216 176 nb
FLAG 1216 192 nc
FLAG 1344 192 O6
FLAG 1056 288 na
FLAG 1072 304 nb
FLAG 1056 320 nc
FLAG 1184 304 O7
FLAG 816 -64 nc
FLAG 928 -80 O4
FLAG 992 432 0
FLAG -528 -192 VDD
FLAG -224 -192 VDD
FLAG 64 -192 VDD
FLAG 64 -256 Clock_div_8
FLAG -192 -256 Clock_div_4
FLAG -528 -256 Clock_div_2
FLAG 192 -144 a
FLAG -96 -144 b
FLAG -400 -144 c
FLAG -304 112 Clock
FLAG -272 160 RST
FLAG 1184 480 VDD
FLAG -528 0 Clock
FLAG 1328 432 O8
SYMBOL Digital\\inv 496 -112 M180
SYMATTR InstName A1
SYMBOL Digital\\inv 496 -192 M180
SYMATTR InstName A2
SYMBOL Digital\\inv 496 -32 M180
SYMATTR InstName A3
SYMBOL Digital\\and 1072 -544 R0
SYMATTR InstName A4
SYMBOL Digital\\and 1072 -432 R0
SYMATTR InstName A5
SYMBOL Digital\\and 1072 -320 R0
SYMATTR InstName A6
SYMBOL Digital\\and 1072 -224 R0
SYMATTR InstName A7
SYMBOL Digital\\or 1296 -288 R0
SYMATTR InstName A8
SYMBOL Digital\\and 1072 16 R0
SYMATTR InstName A9
SYMBOL Digital\\or 1280 -48 R0
SYMATTR InstName A10
SYMBOL Digital\\or 1280 144 R0
SYMATTR InstName A11
SYMBOL Digital\\or 1120 256 R0
SYMATTR InstName A12
SYMBOL Digital\\buf 848 -128 R0
SYMATTR InstName A13
SYMBOL voltage 1152 432 R90
WINDOW 123 0 0 Left 2
WINDOW 39 0 0 Left 2
SYMATTR InstName VDD1
SYMATTR Value 5
SYMBOL DFF -608 -64 R0
SYMATTR InstName X1
SYMBOL DFF -304 -64 R0
SYMATTR InstName X2
SYMBOL DFF -16 -64 R0
SYMATTR InstName X3
SYMBOL Digital\\and -208 80 R0
SYMATTR InstName A14
TEXT -248 240 Left 4 ;Counter
LINE Normal 672 480 672 480
