Version 4
SHEET 1 1856 1148
WIRE 656 -176 512 -176
WIRE 864 -176 736 -176
WIRE 1008 -176 928 -176
WIRE 1616 -176 1008 -176
WIRE 1616 -160 1616 -176
WIRE 656 -64 560 -64
WIRE 864 -64 736 -64
WIRE 1008 -64 1008 -176
WIRE 1008 -64 928 -64
WIRE 1616 -48 1616 -80
WIRE 1616 -16 1616 -48
WIRE 512 48 512 -176
WIRE 512 48 352 48
WIRE 656 48 608 48
WIRE 864 48 736 48
WIRE 1008 48 1008 -64
WIRE 1008 48 928 48
WIRE 1216 48 1168 48
WIRE 1488 48 1440 48
WIRE 560 96 560 -64
WIRE 560 96 352 96
WIRE 1184 112 1136 112
WIRE 1216 112 1184 112
WIRE 1520 112 1440 112
WIRE 1616 112 1616 64
WIRE 1616 112 1520 112
WIRE 1616 128 1616 112
WIRE 608 144 608 48
WIRE 608 144 352 144
WIRE 864 160 736 160
WIRE 1008 160 1008 48
WIRE 1008 160 928 160
WIRE 1168 176 1136 176
WIRE 1216 176 1168 176
WIRE 1552 176 1440 176
WIRE 656 192 656 160
WIRE 656 192 352 192
WIRE 656 240 352 240
WIRE 1216 240 1136 240
WIRE 1472 240 1440 240
WIRE 656 272 656 240
WIRE 864 272 736 272
WIRE 1008 272 1008 160
WIRE 1008 272 928 272
WIRE 1136 272 1136 240
WIRE 608 288 352 288
WIRE 1552 304 1552 176
WIRE 1616 304 1552 304
WIRE 1632 304 1616 304
WIRE 1552 320 1552 304
WIRE 560 336 352 336
WIRE 1136 368 1136 336
WIRE 512 384 352 384
WIRE 608 384 608 288
WIRE 656 384 608 384
WIRE 864 384 736 384
WIRE 1008 384 1008 272
WIRE 1008 384 928 384
WIRE 1552 432 1552 400
WIRE 560 496 560 336
WIRE 656 496 560 496
WIRE 864 496 736 496
WIRE 1008 496 1008 384
WIRE 1008 496 928 496
WIRE 512 608 512 384
WIRE 656 608 512 608
WIRE 864 608 736 608
WIRE 1008 608 1008 496
WIRE 1008 608 928 608
WIRE 1152 688 1152 672
WIRE 1552 688 1552 672
WIRE 1152 800 1152 768
WIRE 1552 800 1552 768
WIRE 1360 832 1360 800
FLAG 1488 48 0
FLAG 1616 192 0
FLAG 1616 -48 d
FLAG 1184 112 d
FLAG 1520 112 k
FLAG 1168 176 k
FLAG 1472 240 VDD
FLAG 1552 432 0
FLAG 1168 48 VDD
FLAG 1136 368 0
FLAG 1152 800 0
FLAG 1152 672 Clock
FLAG 1552 800 0
FLAG 1552 672 RST
FLAG 1616 304 PWM_OUT
FLAG 1360 912 0
FLAG 1360 800 VDD
SYMBOL res 752 -192 R90
WINDOW 0 0 56 VBottom 2
WINDOW 3 32 56 VTop 2
SYMATTR InstName R1
SYMATTR Value 20k
SYMBOL res 752 -80 R90
WINDOW 0 0 56 VBottom 2
WINDOW 3 32 56 VTop 2
SYMATTR InstName R2
SYMATTR Value 20k
SYMBOL res 752 32 R90
WINDOW 0 0 56 VBottom 2
WINDOW 3 32 56 VTop 2
SYMATTR InstName R3
SYMATTR Value 20k
SYMBOL res 752 144 R90
WINDOW 0 0 56 VBottom 2
WINDOW 3 32 56 VTop 2
SYMATTR InstName R4
SYMATTR Value 20k
SYMBOL res 752 256 R90
WINDOW 0 0 56 VBottom 2
WINDOW 3 32 56 VTop 2
SYMATTR InstName R5
SYMATTR Value 20k
SYMBOL res 752 368 R90
WINDOW 0 0 56 VBottom 2
WINDOW 3 32 56 VTop 2
SYMATTR InstName R6
SYMATTR Value 20k
SYMBOL res 752 480 R90
WINDOW 0 0 56 VBottom 2
WINDOW 3 32 56 VTop 2
SYMATTR InstName R7
SYMATTR Value 20k
SYMBOL diode 864 -160 R270
WINDOW 0 32 32 VTop 2
WINDOW 3 0 32 VBottom 2
SYMATTR InstName D1
SYMATTR Value 1N914
SYMBOL diode 864 -48 R270
WINDOW 0 32 32 VTop 2
WINDOW 3 0 32 VBottom 2
SYMATTR InstName D2
SYMATTR Value 1N914
SYMBOL diode 864 64 R270
WINDOW 0 32 32 VTop 2
WINDOW 3 0 32 VBottom 2
SYMATTR InstName D3
SYMATTR Value 1N914
SYMBOL diode 864 176 R270
WINDOW 0 32 32 VTop 2
WINDOW 3 0 32 VBottom 2
SYMATTR InstName D4
SYMATTR Value 1N914
SYMBOL diode 864 288 R270
WINDOW 0 32 32 VTop 2
WINDOW 3 0 32 VBottom 2
SYMATTR InstName D5
SYMATTR Value 1N914
SYMBOL diode 864 400 R270
WINDOW 0 32 32 VTop 2
WINDOW 3 0 32 VBottom 2
SYMATTR InstName D6
SYMATTR Value 1N914
SYMBOL diode 864 512 R270
WINDOW 0 32 32 VTop 2
WINDOW 3 0 32 VBottom 2
SYMATTR InstName D7
SYMATTR Value 1N914
SYMBOL Misc\\NE555 1328 144 M0
SYMATTR InstName U1
SYMBOL cap 1600 128 R0
SYMATTR InstName C1
SYMATTR Value 0.2n
SYMBOL res 1600 -32 R0
SYMATTR InstName R8
SYMATTR Value 5k
SYMBOL res 1600 -176 R0
SYMATTR InstName R9
SYMATTR Value 5k
SYMBOL res 1536 304 R0
SYMATTR InstName R10
SYMATTR Value 10k
SYMBOL cap 1120 272 R0
SYMATTR InstName C2
SYMATTR Value 0.01µ
SYMBOL voltage 1152 672 R0
WINDOW 0 36 42 Left 2
WINDOW 3 35 69 Left 2
WINDOW 123 0 0 Left 2
WINDOW 39 0 0 Left 2
SYMATTR InstName Vclock1
SYMATTR Value PULSE(0 5 0 0.1n 0.1n 1u 2u)
SYMBOL voltage 1552 672 R0
WINDOW 0 36 42 Left 2
WINDOW 3 35 69 Invisible 2
WINDOW 123 0 0 Left 2
WINDOW 39 0 0 Left 2
SYMATTR InstName Vclock2
SYMATTR Value PWL(0u 1 19.999u 1 20.001u 0 40.999u 0 41.001u 1 79.999u 1 80.001u 0)
SYMBOL res 752 592 R90
WINDOW 0 0 56 VBottom 2
WINDOW 3 32 56 VTop 2
SYMATTR InstName R11
SYMATTR Value 20k
SYMBOL diode 864 624 R270
WINDOW 0 32 32 VTop 2
WINDOW 3 0 32 VBottom 2
SYMATTR InstName D8
SYMATTR Value 1N914
SYMBOL voltage 1360 816 R0
WINDOW 123 0 0 Left 0
WINDOW 39 0 0 Left 0
SYMATTR InstName V1
SYMATTR Value 5
SYMBOL BTTD 160 336 R0
SYMATTR InstName X1
TEXT 496 920 Left 2 !.tran 80u uic
TEXT 496 952 Left 2 !.options plotwinsize=0
TEXT 1200 448 Left 4 ;555 TIMER
TEXT 1240 1120 Left 4 ;CLOCK AND CONTROL SIGNALS
TEXT 392 1088 Left 4 ;SIMULATION COMMANDS
RECTANGLE Normal 832 1008 464 864
